* NGSPICE file created from Random_forest_top_ver2.ext - technology: sky130A

* Black-box entry subcircuit for sky130_fd_sc_hd__clkbuf_1 abstract view
.subckt sky130_fd_sc_hd__clkbuf_1 A VGND VNB VPB VPWR X
.ends

* Black-box entry subcircuit for sky130_fd_sc_hd__diode_2 abstract view
.subckt sky130_fd_sc_hd__diode_2 DIODE VGND VNB VPB VPWR
.ends

* Black-box entry subcircuit for sky130_fd_sc_hd__tapvpwrvgnd_1 abstract view
.subckt sky130_fd_sc_hd__tapvpwrvgnd_1 VGND VPWR
.ends

* Black-box entry subcircuit for sky130_ef_sc_hd__decap_12 abstract view
.subckt sky130_ef_sc_hd__decap_12 VPWR VGND VPB VNB
.ends

* Black-box entry subcircuit for sky130_fd_sc_hd__decap_4 abstract view
.subckt sky130_fd_sc_hd__decap_4 VGND VNB VPB VPWR
.ends

* Black-box entry subcircuit for sky130_fd_sc_hd__dfrtp_1 abstract view
.subckt sky130_fd_sc_hd__dfrtp_1 CLK D RESET_B VGND VNB VPB VPWR Q
.ends

* Black-box entry subcircuit for sky130_fd_sc_hd__decap_8 abstract view
.subckt sky130_fd_sc_hd__decap_8 VGND VNB VPB VPWR
.ends

* Black-box entry subcircuit for sky130_fd_sc_hd__fill_1 abstract view
.subckt sky130_fd_sc_hd__fill_1 VGND VNB VPB VPWR
.ends

* Black-box entry subcircuit for sky130_fd_sc_hd__fill_2 abstract view
.subckt sky130_fd_sc_hd__fill_2 VGND VNB VPB VPWR
.ends

* Black-box entry subcircuit for sky130_fd_sc_hd__decap_3 abstract view
.subckt sky130_fd_sc_hd__decap_3 VGND VNB VPB VPWR
.ends

* Black-box entry subcircuit for sky130_fd_sc_hd__inv_2 abstract view
.subckt sky130_fd_sc_hd__inv_2 A VGND VNB VPB VPWR Y
.ends

* Black-box entry subcircuit for sky130_fd_sc_hd__nor2_1 abstract view
.subckt sky130_fd_sc_hd__nor2_1 A B VGND VNB VPB VPWR Y
.ends

* Black-box entry subcircuit for sky130_fd_sc_hd__mux2_1 abstract view
.subckt sky130_fd_sc_hd__mux2_1 A0 A1 S VGND VNB VPB VPWR X
.ends

* Black-box entry subcircuit for sky130_fd_sc_hd__or2b_1 abstract view
.subckt sky130_fd_sc_hd__or2b_1 A B_N VGND VNB VPB VPWR X
.ends

* Black-box entry subcircuit for sky130_fd_sc_hd__decap_6 abstract view
.subckt sky130_fd_sc_hd__decap_6 VGND VNB VPB VPWR
.ends

* Black-box entry subcircuit for sky130_fd_sc_hd__xor2_1 abstract view
.subckt sky130_fd_sc_hd__xor2_1 A B VGND VNB VPB VPWR X
.ends

* Black-box entry subcircuit for sky130_fd_sc_hd__dfstp_1 abstract view
.subckt sky130_fd_sc_hd__dfstp_1 CLK D SET_B VGND VNB VPB VPWR Q
.ends

* Black-box entry subcircuit for sky130_fd_sc_hd__dfxtp_1 abstract view
.subckt sky130_fd_sc_hd__dfxtp_1 CLK D VGND VNB VPB VPWR Q
.ends

* Black-box entry subcircuit for sky130_fd_sc_hd__and3_1 abstract view
.subckt sky130_fd_sc_hd__and3_1 A B C VGND VNB VPB VPWR X
.ends

* Black-box entry subcircuit for sky130_fd_sc_hd__and2_1 abstract view
.subckt sky130_fd_sc_hd__and2_1 A B VGND VNB VPB VPWR X
.ends

* Black-box entry subcircuit for sky130_fd_sc_hd__and2b_1 abstract view
.subckt sky130_fd_sc_hd__and2b_1 A_N B VGND VNB VPB VPWR X
.ends

* Black-box entry subcircuit for sky130_fd_sc_hd__nand2_1 abstract view
.subckt sky130_fd_sc_hd__nand2_1 A B VGND VNB VPB VPWR Y
.ends

* Black-box entry subcircuit for sky130_fd_sc_hd__buf_2 abstract view
.subckt sky130_fd_sc_hd__buf_2 A VGND VNB VPB VPWR X
.ends

* Black-box entry subcircuit for sky130_fd_sc_hd__a221o_1 abstract view
.subckt sky130_fd_sc_hd__a221o_1 A1 A2 B1 B2 C1 VGND VNB VPB VPWR X
.ends

* Black-box entry subcircuit for sky130_fd_sc_hd__or2_1 abstract view
.subckt sky130_fd_sc_hd__or2_1 A B VGND VNB VPB VPWR X
.ends

* Black-box entry subcircuit for sky130_fd_sc_hd__inv_6 abstract view
.subckt sky130_fd_sc_hd__inv_6 A VGND VNB VPB VPWR Y
.ends

* Black-box entry subcircuit for sky130_fd_sc_hd__buf_12 abstract view
.subckt sky130_fd_sc_hd__buf_12 A VGND VNB VPB VPWR X
.ends

* Black-box entry subcircuit for sky130_fd_sc_hd__o21ai_1 abstract view
.subckt sky130_fd_sc_hd__o21ai_1 A1 A2 B1 VGND VNB VPB VPWR Y
.ends

* Black-box entry subcircuit for sky130_fd_sc_hd__and4bb_1 abstract view
.subckt sky130_fd_sc_hd__and4bb_1 A_N B_N C D VGND VNB VPB VPWR X
.ends

* Black-box entry subcircuit for sky130_fd_sc_hd__o22a_1 abstract view
.subckt sky130_fd_sc_hd__o22a_1 A1 A2 B1 B2 VGND VNB VPB VPWR X
.ends

* Black-box entry subcircuit for sky130_fd_sc_hd__buf_1 abstract view
.subckt sky130_fd_sc_hd__buf_1 A VGND VNB VPB VPWR X
.ends

* Black-box entry subcircuit for sky130_fd_sc_hd__o2bb2a_1 abstract view
.subckt sky130_fd_sc_hd__o2bb2a_1 A1_N A2_N B1 B2 VGND VNB VPB VPWR X
.ends

* Black-box entry subcircuit for sky130_fd_sc_hd__nand2_2 abstract view
.subckt sky130_fd_sc_hd__nand2_2 A B VGND VNB VPB VPWR Y
.ends

* Black-box entry subcircuit for sky130_fd_sc_hd__o211a_1 abstract view
.subckt sky130_fd_sc_hd__o211a_1 A1 A2 B1 C1 VGND VNB VPB VPWR X
.ends

* Black-box entry subcircuit for sky130_fd_sc_hd__a22o_1 abstract view
.subckt sky130_fd_sc_hd__a22o_1 A1 A2 B1 B2 VGND VNB VPB VPWR X
.ends

* Black-box entry subcircuit for sky130_fd_sc_hd__buf_8 abstract view
.subckt sky130_fd_sc_hd__buf_8 A VGND VNB VPB VPWR X
.ends

* Black-box entry subcircuit for sky130_fd_sc_hd__or4bb_1 abstract view
.subckt sky130_fd_sc_hd__or4bb_1 A B C_N D_N VGND VNB VPB VPWR X
.ends

* Black-box entry subcircuit for sky130_fd_sc_hd__clkbuf_16 abstract view
.subckt sky130_fd_sc_hd__clkbuf_16 A VGND VNB VPB VPWR X
.ends

* Black-box entry subcircuit for sky130_fd_sc_hd__a21oi_1 abstract view
.subckt sky130_fd_sc_hd__a21oi_1 A1 A2 B1 VGND VNB VPB VPWR Y
.ends

* Black-box entry subcircuit for sky130_fd_sc_hd__clkbuf_4 abstract view
.subckt sky130_fd_sc_hd__clkbuf_4 A VGND VNB VPB VPWR X
.ends

* Black-box entry subcircuit for sky130_fd_sc_hd__bufinv_16 abstract view
.subckt sky130_fd_sc_hd__bufinv_16 A VGND VNB VPB VPWR Y
.ends

* Black-box entry subcircuit for sky130_fd_sc_hd__clkinv_4 abstract view
.subckt sky130_fd_sc_hd__clkinv_4 A VGND VNB VPB VPWR Y
.ends

* Black-box entry subcircuit for sky130_fd_sc_hd__o2111a_1 abstract view
.subckt sky130_fd_sc_hd__o2111a_1 A1 A2 B1 C1 D1 VGND VNB VPB VPWR X
.ends

* Black-box entry subcircuit for sky130_fd_sc_hd__a211o_1 abstract view
.subckt sky130_fd_sc_hd__a211o_1 A1 A2 B1 C1 VGND VNB VPB VPWR X
.ends

* Black-box entry subcircuit for sky130_fd_sc_hd__a2bb2o_1 abstract view
.subckt sky130_fd_sc_hd__a2bb2o_1 A1_N A2_N B1 B2 VGND VNB VPB VPWR X
.ends

* Black-box entry subcircuit for sky130_fd_sc_hd__a21o_1 abstract view
.subckt sky130_fd_sc_hd__a21o_1 A1 A2 B1 VGND VNB VPB VPWR X
.ends

* Black-box entry subcircuit for sky130_fd_sc_hd__or3b_2 abstract view
.subckt sky130_fd_sc_hd__or3b_2 A B C_N VGND VNB VPB VPWR X
.ends

* Black-box entry subcircuit for sky130_fd_sc_hd__o221a_1 abstract view
.subckt sky130_fd_sc_hd__o221a_1 A1 A2 B1 B2 C1 VGND VNB VPB VPWR X
.ends

* Black-box entry subcircuit for sky130_fd_sc_hd__nand3_1 abstract view
.subckt sky130_fd_sc_hd__nand3_1 A B C VGND VNB VPB VPWR Y
.ends

* Black-box entry subcircuit for sky130_fd_sc_hd__nor3_1 abstract view
.subckt sky130_fd_sc_hd__nor3_1 A B C VGND VNB VPB VPWR Y
.ends

* Black-box entry subcircuit for sky130_fd_sc_hd__clkinv_2 abstract view
.subckt sky130_fd_sc_hd__clkinv_2 A VGND VNB VPB VPWR Y
.ends

* Black-box entry subcircuit for sky130_fd_sc_hd__or4_1 abstract view
.subckt sky130_fd_sc_hd__or4_1 A B C D VGND VNB VPB VPWR X
.ends

* Black-box entry subcircuit for sky130_fd_sc_hd__xnor2_1 abstract view
.subckt sky130_fd_sc_hd__xnor2_1 A B VGND VNB VPB VPWR Y
.ends

* Black-box entry subcircuit for sky130_fd_sc_hd__a221oi_1 abstract view
.subckt sky130_fd_sc_hd__a221oi_1 A1 A2 B1 B2 C1 VGND VNB VPB VPWR Y
.ends

* Black-box entry subcircuit for sky130_fd_sc_hd__buf_4 abstract view
.subckt sky130_fd_sc_hd__buf_4 A VGND VNB VPB VPWR X
.ends

* Black-box entry subcircuit for sky130_fd_sc_hd__a31o_1 abstract view
.subckt sky130_fd_sc_hd__a31o_1 A1 A2 A3 B1 VGND VNB VPB VPWR X
.ends

* Black-box entry subcircuit for sky130_fd_sc_hd__clkinv_1 abstract view
.subckt sky130_fd_sc_hd__clkinv_1 A VGND VNB VPB VPWR Y
.ends

* Black-box entry subcircuit for sky130_fd_sc_hd__clkinvlp_4 abstract view
.subckt sky130_fd_sc_hd__clkinvlp_4 A VGND VNB VPB VPWR Y
.ends

* Black-box entry subcircuit for sky130_fd_sc_hd__or4_4 abstract view
.subckt sky130_fd_sc_hd__or4_4 A B C D VGND VNB VPB VPWR X
.ends

* Black-box entry subcircuit for sky130_fd_sc_hd__dfrtp_4 abstract view
.subckt sky130_fd_sc_hd__dfrtp_4 CLK D RESET_B VGND VNB VPB VPWR Q
.ends

* Black-box entry subcircuit for sky130_fd_sc_hd__clkbuf_2 abstract view
.subckt sky130_fd_sc_hd__clkbuf_2 A VGND VNB VPB VPWR X
.ends

* Black-box entry subcircuit for sky130_fd_sc_hd__dlymetal6s2s_1 abstract view
.subckt sky130_fd_sc_hd__dlymetal6s2s_1 A VGND VNB VPB VPWR X
.ends

* Black-box entry subcircuit for sky130_fd_sc_hd__o31ai_1 abstract view
.subckt sky130_fd_sc_hd__o31ai_1 A1 A2 A3 B1 VGND VNB VPB VPWR Y
.ends

* Black-box entry subcircuit for sky130_fd_sc_hd__nor4_1 abstract view
.subckt sky130_fd_sc_hd__nor4_1 A B C D VGND VNB VPB VPWR Y
.ends

* Black-box entry subcircuit for sky130_fd_sc_hd__dfrtp_2 abstract view
.subckt sky130_fd_sc_hd__dfrtp_2 CLK D RESET_B VGND VNB VPB VPWR Q
.ends

* Black-box entry subcircuit for sky130_fd_sc_hd__a211oi_1 abstract view
.subckt sky130_fd_sc_hd__a211oi_1 A1 A2 B1 C1 VGND VNB VPB VPWR Y
.ends

* Black-box entry subcircuit for sky130_fd_sc_hd__or3_1 abstract view
.subckt sky130_fd_sc_hd__or3_1 A B C VGND VNB VPB VPWR X
.ends

* Black-box entry subcircuit for sky130_fd_sc_hd__or4b_1 abstract view
.subckt sky130_fd_sc_hd__or4b_1 A B C D_N VGND VNB VPB VPWR X
.ends

* Black-box entry subcircuit for sky130_fd_sc_hd__a41o_1 abstract view
.subckt sky130_fd_sc_hd__a41o_1 A1 A2 A3 A4 B1 VGND VNB VPB VPWR X
.ends

* Black-box entry subcircuit for sky130_fd_sc_hd__a2111o_1 abstract view
.subckt sky130_fd_sc_hd__a2111o_1 A1 A2 B1 C1 D1 VGND VNB VPB VPWR X
.ends

* Black-box entry subcircuit for sky130_fd_sc_hd__o21a_1 abstract view
.subckt sky130_fd_sc_hd__o21a_1 A1 A2 B1 VGND VNB VPB VPWR X
.ends

* Black-box entry subcircuit for sky130_fd_sc_hd__and3b_1 abstract view
.subckt sky130_fd_sc_hd__and3b_1 A_N B C VGND VNB VPB VPWR X
.ends

* Black-box entry subcircuit for sky130_fd_sc_hd__o31a_1 abstract view
.subckt sky130_fd_sc_hd__o31a_1 A1 A2 A3 B1 VGND VNB VPB VPWR X
.ends

* Black-box entry subcircuit for sky130_fd_sc_hd__a2111oi_1 abstract view
.subckt sky130_fd_sc_hd__a2111oi_1 A1 A2 B1 C1 D1 VGND VNB VPB VPWR Y
.ends

* Black-box entry subcircuit for sky130_fd_sc_hd__clkinvlp_2 abstract view
.subckt sky130_fd_sc_hd__clkinvlp_2 A VGND VNB VPB VPWR Y
.ends

* Black-box entry subcircuit for sky130_fd_sc_hd__or3_2 abstract view
.subckt sky130_fd_sc_hd__or3_2 A B C VGND VNB VPB VPWR X
.ends

* Black-box entry subcircuit for sky130_fd_sc_hd__and4_1 abstract view
.subckt sky130_fd_sc_hd__and4_1 A B C D VGND VNB VPB VPWR X
.ends

* Black-box entry subcircuit for sky130_fd_sc_hd__o21bai_1 abstract view
.subckt sky130_fd_sc_hd__o21bai_1 A1 A2 B1_N VGND VNB VPB VPWR Y
.ends

* Black-box entry subcircuit for sky130_fd_sc_hd__or3b_1 abstract view
.subckt sky130_fd_sc_hd__or3b_1 A B C_N VGND VNB VPB VPWR X
.ends

* Black-box entry subcircuit for sky130_fd_sc_hd__nor2b_1 abstract view
.subckt sky130_fd_sc_hd__nor2b_1 A B_N VGND VNB VPB VPWR Y
.ends

* Black-box entry subcircuit for sky130_fd_sc_hd__a32o_1 abstract view
.subckt sky130_fd_sc_hd__a32o_1 A1 A2 A3 B1 B2 VGND VNB VPB VPWR X
.ends

* Black-box entry subcircuit for sky130_fd_sc_hd__nand4_2 abstract view
.subckt sky130_fd_sc_hd__nand4_2 A B C D VGND VNB VPB VPWR Y
.ends

* Black-box entry subcircuit for sky130_fd_sc_hd__a21boi_1 abstract view
.subckt sky130_fd_sc_hd__a21boi_1 A1 A2 B1_N VGND VNB VPB VPWR Y
.ends

* Black-box entry subcircuit for sky130_fd_sc_hd__o211ai_2 abstract view
.subckt sky130_fd_sc_hd__o211ai_2 A1 A2 B1 C1 VGND VNB VPB VPWR Y
.ends

* Black-box entry subcircuit for sky130_fd_sc_hd__nand2_4 abstract view
.subckt sky130_fd_sc_hd__nand2_4 A B VGND VNB VPB VPWR Y
.ends

* Black-box entry subcircuit for sky130_fd_sc_hd__a22oi_1 abstract view
.subckt sky130_fd_sc_hd__a22oi_1 A1 A2 B1 B2 VGND VNB VPB VPWR Y
.ends

* Black-box entry subcircuit for sky130_fd_sc_hd__o311a_1 abstract view
.subckt sky130_fd_sc_hd__o311a_1 A1 A2 A3 B1 C1 VGND VNB VPB VPWR X
.ends

* Black-box entry subcircuit for sky130_fd_sc_hd__or4_2 abstract view
.subckt sky130_fd_sc_hd__or4_2 A B C D VGND VNB VPB VPWR X
.ends

* Black-box entry subcircuit for sky130_fd_sc_hd__o21ba_1 abstract view
.subckt sky130_fd_sc_hd__o21ba_1 A1 A2 B1_N VGND VNB VPB VPWR X
.ends

* Black-box entry subcircuit for sky130_fd_sc_hd__o22ai_1 abstract view
.subckt sky130_fd_sc_hd__o22ai_1 A1 A2 B1 B2 VGND VNB VPB VPWR Y
.ends

* Black-box entry subcircuit for sky130_fd_sc_hd__nand2b_1 abstract view
.subckt sky130_fd_sc_hd__nand2b_1 A_N B VGND VNB VPB VPWR Y
.ends

* Black-box entry subcircuit for sky130_fd_sc_hd__o41a_1 abstract view
.subckt sky130_fd_sc_hd__o41a_1 A1 A2 A3 A4 B1 VGND VNB VPB VPWR X
.ends

* Black-box entry subcircuit for sky130_fd_sc_hd__or4bb_2 abstract view
.subckt sky130_fd_sc_hd__or4bb_2 A B C_N D_N VGND VNB VPB VPWR X
.ends

* Black-box entry subcircuit for sky130_fd_sc_hd__a21bo_1 abstract view
.subckt sky130_fd_sc_hd__a21bo_1 A1 A2 B1_N VGND VNB VPB VPWR X
.ends

* Black-box entry subcircuit for sky130_fd_sc_hd__o32a_1 abstract view
.subckt sky130_fd_sc_hd__o32a_1 A1 A2 A3 B1 B2 VGND VNB VPB VPWR X
.ends

.subckt Random_forest_top_ver2 VGND VPWR arbitration_id[0] arbitration_id[10] arbitration_id[11]
+ arbitration_id[12] arbitration_id[13] arbitration_id[14] arbitration_id[15] arbitration_id[16]
+ arbitration_id[17] arbitration_id[18] arbitration_id[19] arbitration_id[1] arbitration_id[20]
+ arbitration_id[21] arbitration_id[22] arbitration_id[23] arbitration_id[24] arbitration_id[25]
+ arbitration_id[26] arbitration_id[27] arbitration_id[28] arbitration_id[29] arbitration_id[2]
+ arbitration_id[30] arbitration_id[31] arbitration_id[32] arbitration_id[33] arbitration_id[34]
+ arbitration_id[35] arbitration_id[36] arbitration_id[37] arbitration_id[38] arbitration_id[39]
+ arbitration_id[3] arbitration_id[40] arbitration_id[41] arbitration_id[42] arbitration_id[43]
+ arbitration_id[44] arbitration_id[45] arbitration_id[46] arbitration_id[47] arbitration_id[48]
+ arbitration_id[49] arbitration_id[4] arbitration_id[50] arbitration_id[51] arbitration_id[52]
+ arbitration_id[53] arbitration_id[54] arbitration_id[55] arbitration_id[56] arbitration_id[57]
+ arbitration_id[58] arbitration_id[59] arbitration_id[5] arbitration_id[60] arbitration_id[61]
+ arbitration_id[62] arbitration_id[63] arbitration_id[6] arbitration_id[7] arbitration_id[8]
+ arbitration_id[9] clk data_field[0] data_field[10] data_field[11] data_field[12]
+ data_field[13] data_field[14] data_field[15] data_field[16] data_field[17] data_field[18]
+ data_field[19] data_field[1] data_field[20] data_field[21] data_field[22] data_field[23]
+ data_field[24] data_field[25] data_field[26] data_field[27] data_field[28] data_field[29]
+ data_field[2] data_field[30] data_field[31] data_field[32] data_field[33] data_field[34]
+ data_field[35] data_field[36] data_field[37] data_field[38] data_field[39] data_field[3]
+ data_field[40] data_field[41] data_field[42] data_field[43] data_field[44] data_field[45]
+ data_field[46] data_field[47] data_field[48] data_field[49] data_field[4] data_field[50]
+ data_field[51] data_field[52] data_field[53] data_field[54] data_field[55] data_field[56]
+ data_field[57] data_field[58] data_field[59] data_field[5] data_field[60] data_field[61]
+ data_field[62] data_field[63] data_field[6] data_field[7] data_field[8] data_field[9]
+ feature_valid frame_id_out[0] frame_id_out[1] frame_id_out[2] frame_id_out[3] frame_id_out[4]
+ prediction_out prediction_valid ready_for_next rst_n timestamp[0] timestamp[10]
+ timestamp[11] timestamp[12] timestamp[13] timestamp[14] timestamp[15] timestamp[16]
+ timestamp[17] timestamp[18] timestamp[19] timestamp[1] timestamp[20] timestamp[21]
+ timestamp[22] timestamp[23] timestamp[24] timestamp[25] timestamp[26] timestamp[27]
+ timestamp[28] timestamp[29] timestamp[2] timestamp[30] timestamp[31] timestamp[32]
+ timestamp[33] timestamp[34] timestamp[35] timestamp[36] timestamp[37] timestamp[38]
+ timestamp[39] timestamp[3] timestamp[40] timestamp[41] timestamp[42] timestamp[43]
+ timestamp[44] timestamp[45] timestamp[46] timestamp[47] timestamp[48] timestamp[49]
+ timestamp[4] timestamp[50] timestamp[51] timestamp[52] timestamp[53] timestamp[54]
+ timestamp[55] timestamp[56] timestamp[57] timestamp[58] timestamp[59] timestamp[5]
+ timestamp[60] timestamp[61] timestamp[62] timestamp[63] timestamp[6] timestamp[7]
+ timestamp[8] timestamp[9]
X_3155_ _0710_ VGND VGND VPWR VPWR _0711_ sky130_fd_sc_hd__clkbuf_1
XANTENNA__5530__S _1020_ VGND VGND VPWR VPWR sky130_fd_sc_hd__diode_2
XTAP_TAPCELL_ROW_68_1026 VGND VPWR sky130_fd_sc_hd__tapvpwrvgnd_1
XFILLER_0_27_82 VPWR VGND VPWR VGND sky130_ef_sc_hd__decap_12
XFILLER_0_77_612 VGND VGND VPWR VPWR sky130_fd_sc_hd__decap_4
X_6914_ clknet_leaf_70_clk _0627_ net38 VGND VGND VPWR VPWR tree_instances\[3\].u_tree.current_node_data\[107\]
+ sky130_fd_sc_hd__dfrtp_1
XANTENNA__6743__RESET_B net38 VGND VGND VPWR VPWR sky130_fd_sc_hd__diode_2
X_6845_ clknet_leaf_86_clk _0565_ tree_instances\[0\].u_tree.rst_n VGND VGND VPWR
+ VPWR tree_instances\[2\].u_tree.pipeline_current_node\[0\]\[9\] sky130_fd_sc_hd__dfrtp_1
XFILLER_0_107_419 VGND VGND VPWR VPWR sky130_fd_sc_hd__decap_8
X_3988_ _1466_ VGND VGND VPWR VPWR _1467_ sky130_fd_sc_hd__clkbuf_1
XFILLER_0_91_125 VGND VGND VPWR VPWR sky130_fd_sc_hd__fill_1
XFILLER_0_57_380 VGND VGND VPWR VPWR sky130_fd_sc_hd__fill_2
XFILLER_0_9_455 VGND VGND VPWR VPWR sky130_fd_sc_hd__decap_3
X_6776_ clknet_leaf_5_clk _0510_ net26 VGND VGND VPWR VPWR complete_votes\[0\] sky130_fd_sc_hd__dfrtp_1
X_5727_ tree_instances\[19\].u_tree.frame_id_out\[4\] VGND VGND VPWR VPWR _2772_ sky130_fd_sc_hd__inv_2
XFILLER_0_91_169 VGND VGND VPWR VPWR sky130_fd_sc_hd__fill_1
XFILLER_0_32_203 VGND VGND VPWR VPWR sky130_fd_sc_hd__fill_1
XTAP_TAPCELL_ROW_79_1144 VGND VPWR sky130_fd_sc_hd__tapvpwrvgnd_1
XFILLER_0_72_394 VGND VGND VPWR VPWR sky130_fd_sc_hd__decap_3
XFILLER_0_5_661 VGND VGND VPWR VPWR sky130_fd_sc_hd__fill_1
X_5658_ _2703_ _2704_ VGND VGND VPWR VPWR _0508_ sky130_fd_sc_hd__nor2_1
XTAP_TAPCELL_ROW_92_1300 VGND VPWR sky130_fd_sc_hd__tapvpwrvgnd_1
XFILLER_0_60_589 VGND VGND VPWR VPWR sky130_fd_sc_hd__decap_8
X_4609_ tree_instances\[9\].u_tree.frame_id_out\[4\] tree_instances\[9\].u_tree.pipeline_frame_id\[0\]\[4\]
+ tree_instances\[9\].u_tree.tree_state\[3\] VGND VGND VPWR VPWR _1979_ sky130_fd_sc_hd__mux2_1
XFILLER_0_20_409 VGND VGND VPWR VPWR sky130_fd_sc_hd__decap_8
X_5589_ tree_instances\[13\].u_tree.frame_id_out\[0\] current_voting_frame\[0\] VGND
+ VGND VPWR VPWR _2639_ sky130_fd_sc_hd__or2b_1
XFILLER_0_7_70 VPWR VGND VPWR VGND sky130_ef_sc_hd__decap_12
XFILLER_0_13_483 VGND VGND VPWR VPWR sky130_fd_sc_hd__decap_8
XFILLER_0_99_236 VPWR VGND VPWR VGND sky130_ef_sc_hd__decap_12
XFILLER_0_99_225 VGND VGND VPWR VPWR sky130_fd_sc_hd__fill_1
XFILLER_0_68_645 VPWR VGND VPWR VGND sky130_ef_sc_hd__decap_12
XFILLER_0_83_626 VGND VGND VPWR VPWR sky130_fd_sc_hd__fill_1
XANTENNA__6484__RESET_B net27 VGND VGND VPWR VPWR sky130_fd_sc_hd__diode_2
XFILLER_0_70_309 VGND VGND VPWR VPWR sky130_fd_sc_hd__fill_1
XFILLER_0_63_361 VGND VGND VPWR VPWR sky130_fd_sc_hd__decap_3
XFILLER_0_51_501 VGND VGND VPWR VPWR sky130_fd_sc_hd__decap_3
XFILLER_0_3_609 VGND VGND VPWR VPWR sky130_fd_sc_hd__decap_6
XFILLER_0_106_474 VGND VGND VPWR VPWR sky130_fd_sc_hd__fill_2
XTAP_TAPCELL_ROW_11_367 VGND VPWR sky130_fd_sc_hd__tapvpwrvgnd_1
XFILLER_0_2_119 VPWR VGND VPWR VGND sky130_ef_sc_hd__decap_12
XFILLER_0_23_225 VGND VGND VPWR VPWR sky130_fd_sc_hd__decap_4
XFILLER_0_48_37 VGND VGND VPWR VPWR sky130_fd_sc_hd__fill_2
XFILLER_0_64_25 VGND VGND VPWR VPWR sky130_fd_sc_hd__decap_3
XFILLER_0_3_39 VPWR VGND VPWR VGND sky130_ef_sc_hd__decap_12
Xwire18 _2717_ VGND VGND VPWR VPWR net18 sky130_fd_sc_hd__clkbuf_1
XTAP_TAPCELL_ROW_19_456 VGND VPWR sky130_fd_sc_hd__tapvpwrvgnd_1
X_4960_ _2216_ VGND VGND VPWR VPWR _0296_ sky130_fd_sc_hd__clkbuf_1
XTAP_TAPCELL_ROW_47_776 VGND VPWR sky130_fd_sc_hd__tapvpwrvgnd_1
XFILLER_0_86_475 VGND VGND VPWR VPWR sky130_fd_sc_hd__fill_1
X_3911_ _1391_ VGND VGND VPWR VPWR _0093_ sky130_fd_sc_hd__clkbuf_1
X_4891_ _1650_ tree_instances\[13\].u_tree.u_tree_weight_rom.cached_addr\[3\] VGND
+ VGND VPWR VPWR _2171_ sky130_fd_sc_hd__xor2_1
X_6630_ clknet_leaf_57_clk _0389_ net37 VGND VGND VPWR VPWR tree_instances\[17\].u_tree.pipeline_current_node\[0\]\[8\]
+ sky130_fd_sc_hd__dfrtp_1
XFILLER_0_58_177 VPWR VGND VPWR VGND sky130_ef_sc_hd__decap_12
X_3842_ _1326_ VGND VGND VPWR VPWR _1327_ sky130_fd_sc_hd__clkbuf_1
X_6561_ clknet_leaf_50_clk _0335_ net35 VGND VGND VPWR VPWR tree_instances\[14\].u_tree.ready_for_next
+ sky130_fd_sc_hd__dfstp_1
X_3773_ _1145_ VGND VGND VPWR VPWR _1263_ sky130_fd_sc_hd__clkbuf_1
XFILLER_0_6_469 VGND VGND VPWR VPWR sky130_fd_sc_hd__decap_6
XFILLER_0_6_447 VPWR VGND VPWR VGND sky130_ef_sc_hd__decap_12
X_5512_ attack_votes\[4\] VGND VGND VPWR VPWR _2573_ sky130_fd_sc_hd__inv_2
XFILLER_0_89_66 VGND VGND VPWR VPWR sky130_fd_sc_hd__fill_1
X_6492_ clknet_leaf_1_clk _0275_ VGND VGND VPWR VPWR tree_instances\[12\].u_tree.u_tree_weight_rom.cached_addr\[1\]
+ sky130_fd_sc_hd__dfxtp_1
XFILLER_0_42_545 VGND VGND VPWR VPWR sky130_fd_sc_hd__decap_3
X_5443_ _2530_ tree_instances\[1\].u_tree.u_tree_weight_rom.gen_tree_1.u_tree_rom.node_data\[12\]
+ _2531_ VGND VGND VPWR VPWR _2532_ sky130_fd_sc_hd__and3_1
XFILLER_0_42_589 VGND VGND VPWR VPWR sky130_fd_sc_hd__fill_1
X_5374_ _2461_ VGND VGND VPWR VPWR _2476_ sky130_fd_sc_hd__clkbuf_1
XFILLER_0_10_442 VPWR VGND VPWR VGND sky130_ef_sc_hd__decap_12
X_4325_ _1768_ _1789_ VGND VGND VPWR VPWR _1792_ sky130_fd_sc_hd__nor2_1
XTAP_TAPCELL_ROW_74_1096 VGND VPWR sky130_fd_sc_hd__tapvpwrvgnd_1
X_4256_ _1032_ VGND VGND VPWR VPWR _1725_ sky130_fd_sc_hd__clkbuf_1
X_4187_ _1652_ VGND VGND VPWR VPWR _1659_ sky130_fd_sc_hd__clkbuf_1
X_3207_ _0756_ VGND VGND VPWR VPWR _0757_ sky130_fd_sc_hd__clkbuf_1
XANTENNA__6995__RESET_B net31 VGND VGND VPWR VPWR sky130_fd_sc_hd__diode_2
XANTENNA__6924__RESET_B net39 VGND VGND VPWR VPWR sky130_fd_sc_hd__diode_2
XFILLER_0_77_442 VGND VGND VPWR VPWR sky130_fd_sc_hd__fill_2
XFILLER_0_49_111 VGND VGND VPWR VPWR sky130_fd_sc_hd__fill_1
XFILLER_0_65_615 VGND VGND VPWR VPWR sky130_fd_sc_hd__fill_1
X_6828_ clknet_leaf_40_clk _0549_ net30 VGND VGND VPWR VPWR tree_instances\[1\].u_tree.frame_id_out\[1\]
+ sky130_fd_sc_hd__dfrtp_1
XFILLER_0_9_252 VGND VGND VPWR VPWR sky130_fd_sc_hd__decap_8
XFILLER_0_92_445 VGND VGND VPWR VPWR sky130_fd_sc_hd__decap_4
XFILLER_0_80_607 VGND VGND VPWR VPWR sky130_fd_sc_hd__decap_3
XFILLER_0_64_136 VGND VGND VPWR VPWR sky130_fd_sc_hd__decap_4
XFILLER_0_52_309 VGND VGND VPWR VPWR sky130_fd_sc_hd__fill_1
XFILLER_0_92_489 VPWR VGND VPWR VGND sky130_ef_sc_hd__decap_12
XANTENNA_clkbuf_leaf_93_clk_A clknet_3_1__leaf_clk VGND VGND VPWR VPWR sky130_fd_sc_hd__diode_2
X_6759_ clknet_leaf_4_clk _0000_ net26 VGND VGND VPWR VPWR net8 sky130_fd_sc_hd__dfrtp_1
XFILLER_0_45_361 VPWR VGND VPWR VGND sky130_ef_sc_hd__decap_12
XFILLER_0_5_480 VGND VGND VPWR VPWR sky130_fd_sc_hd__decap_3
XFILLER_0_103_444 VGND VGND VPWR VPWR sky130_fd_sc_hd__decap_4
XFILLER_0_20_239 VPWR VGND VPWR VGND sky130_ef_sc_hd__decap_12
XANTENNA_clkbuf_leaf_31_clk_A clknet_3_3__leaf_clk VGND VGND VPWR VPWR sky130_fd_sc_hd__diode_2
XFILLER_0_18_29 VGND VGND VPWR VPWR sky130_fd_sc_hd__decap_4
XFILLER_0_87_217 VGND VGND VPWR VPWR sky130_fd_sc_hd__fill_2
XANTENNA_clkbuf_leaf_46_clk_A clknet_3_6__leaf_clk VGND VGND VPWR VPWR sky130_fd_sc_hd__diode_2
XFILLER_0_56_615 VGND VGND VPWR VPWR sky130_fd_sc_hd__fill_1
XTAP_TAPCELL_ROW_16_426 VGND VPWR sky130_fd_sc_hd__tapvpwrvgnd_1
XTAP_TAPCELL_ROW_44_746 VGND VPWR sky130_fd_sc_hd__tapvpwrvgnd_1
XFILLER_0_95_261 VGND VGND VPWR VPWR sky130_fd_sc_hd__fill_2
XFILLER_0_83_412 VPWR VGND VPWR VGND sky130_ef_sc_hd__decap_12
XFILLER_0_71_629 VGND VGND VPWR VPWR sky130_fd_sc_hd__decap_8
XFILLER_0_55_169 VPWR VGND VPWR VGND sky130_ef_sc_hd__decap_12
XFILLER_0_36_361 VGND VGND VPWR VPWR sky130_fd_sc_hd__decap_3
XFILLER_0_51_320 VPWR VGND VPWR VGND sky130_ef_sc_hd__decap_12
XFILLER_0_59_14 VPWR VGND VPWR VGND sky130_ef_sc_hd__decap_12
XFILLER_0_51_353 VGND VGND VPWR VPWR sky130_fd_sc_hd__decap_8
XFILLER_0_24_556 VPWR VGND VPWR VGND sky130_ef_sc_hd__decap_12
XFILLER_0_59_69 VGND VGND VPWR VPWR sky130_fd_sc_hd__decap_4
XTAP_TAPCELL_ROW_110_1506 VGND VPWR sky130_fd_sc_hd__tapvpwrvgnd_1
XFILLER_0_75_13 VPWR VGND VPWR VGND sky130_ef_sc_hd__decap_12
X_5090_ _1138_ VGND VGND VPWR VPWR _2289_ sky130_fd_sc_hd__inv_2
X_4110_ _1584_ VGND VGND VPWR VPWR _1585_ sky130_fd_sc_hd__clkbuf_1
X_4041_ _1229_ VGND VGND VPWR VPWR _1518_ sky130_fd_sc_hd__clkbuf_1
XFILLER_0_75_57 VPWR VGND VPWR VGND sky130_ef_sc_hd__decap_12
XTAP_TAPCELL_ROW_108_1479 VGND VPWR sky130_fd_sc_hd__tapvpwrvgnd_1
X_5992_ _2955_ VGND VGND VPWR VPWR _0591_ sky130_fd_sc_hd__clkbuf_1
XANTENNA__6335__RESET_B net27 VGND VGND VPWR VPWR sky130_fd_sc_hd__diode_2
XFILLER_0_91_89 VGND VGND VPWR VPWR sky130_fd_sc_hd__decap_6
X_4943_ _1727_ _2133_ VGND VGND VPWR VPWR _2208_ sky130_fd_sc_hd__and2_1
XFILLER_0_19_306 VGND VGND VPWR VPWR sky130_fd_sc_hd__decap_8
XFILLER_0_59_486 VPWR VGND VPWR VGND sky130_ef_sc_hd__decap_12
XFILLER_0_47_626 VGND VGND VPWR VPWR sky130_fd_sc_hd__fill_1
X_6613_ clknet_leaf_36_clk _0377_ net33 VGND VGND VPWR VPWR tree_instances\[16\].u_tree.ready_for_next
+ sky130_fd_sc_hd__dfstp_1
X_4874_ _2146_ VGND VGND VPWR VPWR _2155_ sky130_fd_sc_hd__clkbuf_1
X_3825_ tree_instances\[9\].u_tree.prediction_valid _1025_ VGND VGND VPWR VPWR _1314_
+ sky130_fd_sc_hd__and2b_1
X_6544_ clknet_leaf_43_clk _0318_ net34 VGND VGND VPWR VPWR tree_instances\[14\].u_tree.pipeline_frame_id\[0\]\[2\]
+ sky130_fd_sc_hd__dfrtp_1
XFILLER_0_61_139 VPWR VGND VPWR VGND sky130_ef_sc_hd__decap_12
XFILLER_0_6_277 VPWR VGND VPWR VGND sky130_ef_sc_hd__decap_12
X_3756_ _1247_ _1249_ VGND VGND VPWR VPWR _1250_ sky130_fd_sc_hd__nand2_1
XTAP_TAPCELL_ROW_76_1114 VGND VPWR sky130_fd_sc_hd__tapvpwrvgnd_1
X_6475_ clknet_leaf_99_clk _0263_ net26 VGND VGND VPWR VPWR tree_instances\[12\].u_tree.pipeline_frame_id\[0\]\[4\]
+ sky130_fd_sc_hd__dfrtp_1
X_5426_ _2521_ VGND VGND VPWR VPWR _0458_ sky130_fd_sc_hd__clkbuf_1
XFILLER_0_71_3 VGND VGND VPWR VPWR sky130_fd_sc_hd__decap_3
X_3687_ _0858_ VGND VGND VPWR VPWR _1192_ sky130_fd_sc_hd__clkbuf_1
X_5357_ tree_instances\[5\].u_tree.pipeline_current_node\[0\]\[2\] VGND VGND VPWR
+ VPWR _2459_ sky130_fd_sc_hd__inv_2
X_5288_ _2416_ VGND VGND VPWR VPWR _0425_ sky130_fd_sc_hd__clkbuf_1
X_4308_ tree_instances\[8\].u_tree.pipeline_current_node\[0\]\[5\] VGND VGND VPWR
+ VPWR _1775_ sky130_fd_sc_hd__inv_2
X_4239_ _1707_ VGND VGND VPWR VPWR _1708_ sky130_fd_sc_hd__clkbuf_1
XFILLER_0_4_71 VPWR VGND VPWR VGND sky130_ef_sc_hd__decap_12
XANTENNA__4834__A1 _2125_ VGND VGND VPWR VPWR sky130_fd_sc_hd__diode_2
XTAP_TAPCELL_ROW_87_1243 VGND VPWR sky130_fd_sc_hd__tapvpwrvgnd_1
XFILLER_0_97_548 VPWR VGND VPWR VGND sky130_ef_sc_hd__decap_12
XFILLER_0_38_648 VPWR VGND VPWR VGND sky130_ef_sc_hd__decap_12
XFILLER_0_65_456 VGND VGND VPWR VPWR sky130_fd_sc_hd__decap_4
XTAP_TAPCELL_ROW_41_716 VGND VPWR sky130_fd_sc_hd__tapvpwrvgnd_1
XANTENNA__5011__A1 _2246_ VGND VGND VPWR VPWR sky130_fd_sc_hd__diode_2
XFILLER_0_18_394 VPWR VGND VPWR VGND sky130_ef_sc_hd__decap_12
XTAP_TAPCELL_ROW_98_1372 VGND VPWR sky130_fd_sc_hd__tapvpwrvgnd_1
XTAP_TAPCELL_ROW_21_484 VGND VPWR sky130_fd_sc_hd__tapvpwrvgnd_1
XFILLER_0_103_230 VPWR VGND VPWR VGND sky130_ef_sc_hd__decap_12
XFILLER_0_21_515 VGND VGND VPWR VPWR sky130_fd_sc_hd__decap_4
XANTENNA__6846__RESET_B tree_instances\[0\].u_tree.rst_n VGND VGND VPWR VPWR sky130_fd_sc_hd__diode_2
XTAP_TAPCELL_ROW_49_805 VGND VPWR sky130_fd_sc_hd__tapvpwrvgnd_1
XFILLER_0_45_27 VGND VGND VPWR VPWR sky130_fd_sc_hd__decap_3
XTAP_TAPCELL_ROW_29_573 VGND VPWR sky130_fd_sc_hd__tapvpwrvgnd_1
XTAP_TAPCELL_ROW_57_893 VGND VPWR sky130_fd_sc_hd__tapvpwrvgnd_1
XFILLER_0_0_29 VPWR VGND VPWR VGND sky130_ef_sc_hd__decap_12
XFILLER_0_61_37 VGND VGND VPWR VPWR sky130_fd_sc_hd__fill_2
XFILLER_0_29_615 VGND VGND VPWR VPWR sky130_fd_sc_hd__fill_1
XFILLER_0_83_264 VPWR VGND VPWR VGND sky130_ef_sc_hd__decap_12
XFILLER_0_56_489 VGND VGND VPWR VPWR sky130_fd_sc_hd__fill_2
XFILLER_0_16_309 VGND VGND VPWR VPWR sky130_fd_sc_hd__fill_2
XPHY_EDGE_ROW_104_Right_104 VGND VGND VPWR VPWR sky130_fd_sc_hd__decap_3
X_3610_ _1123_ VGND VGND VPWR VPWR _1124_ sky130_fd_sc_hd__clkbuf_1
X_4590_ _1969_ VGND VGND VPWR VPWR _0172_ sky130_fd_sc_hd__clkbuf_1
XFILLER_0_9_27 VPWR VGND VPWR VGND sky130_ef_sc_hd__decap_12
X_3541_ tree_instances\[15\].u_tree.pipeline_current_node\[0\]\[3\] VGND VGND VPWR
+ VPWR _1062_ sky130_fd_sc_hd__clkbuf_1
XFILLER_0_3_203 VPWR VGND VPWR VGND sky130_ef_sc_hd__decap_12
XFILLER_0_24_353 VGND VGND VPWR VPWR sky130_fd_sc_hd__fill_1
XFILLER_0_12_515 VPWR VGND VPWR VGND sky130_ef_sc_hd__decap_12
XFILLER_0_10_41 VGND VGND VPWR VPWR sky130_fd_sc_hd__fill_2
XFILLER_0_3_258 VGND VGND VPWR VPWR sky130_fd_sc_hd__decap_3
XFILLER_0_24_386 VGND VGND VPWR VPWR sky130_fd_sc_hd__fill_2
XFILLER_0_101_87 VGND VGND VPWR VPWR sky130_fd_sc_hd__decap_4
X_6260_ _3129_ VGND VGND VPWR VPWR _0685_ sky130_fd_sc_hd__clkbuf_1
XFILLER_0_10_85 VGND VGND VPWR VPWR sky130_fd_sc_hd__decap_3
X_3472_ tree_instances\[8\].u_tree.tree_state\[3\] VGND VGND VPWR VPWR _1000_ sky130_fd_sc_hd__buf_2
X_6191_ _0709_ _3035_ VGND VGND VPWR VPWR _3091_ sky130_fd_sc_hd__and2_1
X_5211_ tree_instances\[17\].u_tree.pipeline_current_node\[0\]\[8\] VGND VGND VPWR
+ VPWR _2376_ sky130_fd_sc_hd__clkbuf_1
XANTENNA__5710__C1 _2679_ VGND VGND VPWR VPWR sky130_fd_sc_hd__diode_2
X_5142_ _2319_ VGND VGND VPWR VPWR _0375_ sky130_fd_sc_hd__clkbuf_1
XTAP_TAPCELL_ROW_71_1055 VGND VPWR sky130_fd_sc_hd__tapvpwrvgnd_1
XANTENNA__6679__SET_B net37 VGND VGND VPWR VPWR sky130_fd_sc_hd__diode_2
X_5073_ _2280_ VGND VGND VPWR VPWR _0345_ sky130_fd_sc_hd__clkbuf_1