*SPEF "ieee 1481-1999"
*DESIGN "Random_forest_top_ver2"
*DATE "06:13:29 Thursday May 08, 2025"
*VENDOR "The OpenROAD Project"
*PROGRAM "OpenROAD"
*VERSION "b16bda7e82721d10566ff7e2b68f1ff0be9f9e38"
*DESIGN_FLOW "NAME_SCOPE LOCAL" "PIN_CAP NONE"
*DIVIDER /
*DELIMITER :
*BUS_DELIMITER []
*T_UNIT 1 NS
*C_UNIT 1 PF
*R_UNIT 1 OHM
*L_UNIT 1 HENRY

*NAME_MAP
*3 arbitration_id[0]
*4 arbitration_id[10]
*5 arbitration_id[11]
*6 arbitration_id[12]
*7 arbitration_id[13]
*8 arbitration_id[14]
*9 arbitration_id[15]
*10 arbitration_id[16]
*11 arbitration_id[17]
*12 arbitration_id[18]
*13 arbitration_id[19]
*14 arbitration_id[1]
*15 arbitration_id[20]
*16 arbitration_id[21]
*17 arbitration_id[22]
*18 arbitration_id[23]
*19 arbitration_id[24]
*20 arbitration_id[25]
*21 arbitration_id[26]
*22 arbitration_id[27]
*23 arbitration_id[28]
*24 arbitration_id[29]
*25 arbitration_id[2]
*26 arbitration_id[30]
*27 arbitration_id[31]
*28 arbitration_id[32]
*29 arbitration_id[33]
*30 arbitration_id[34]
*31 arbitration_id[35]
*32 arbitration_id[36]
*33 arbitration_id[37]
*34 arbitration_id[38]
*35 arbitration_id[39]
*36 arbitration_id[3]
*37 arbitration_id[40]
*38 arbitration_id[41]
*39 arbitration_id[42]
*40 arbitration_id[43]
*41 arbitration_id[44]
*42 arbitration_id[45]
*43 arbitration_id[46]
*44 arbitration_id[47]
*45 arbitration_id[48]
*46 arbitration_id[49]
*47 arbitration_id[4]
*48 arbitration_id[50]
*49 arbitration_id[51]
*50 arbitration_id[52]
*51 arbitration_id[53]
*52 arbitration_id[54]
*53 arbitration_id[55]
*54 arbitration_id[56]
*55 arbitration_id[57]
*56 arbitration_id[58]
*57 arbitration_id[59]
*58 arbitration_id[5]
*59 arbitration_id[60]
*60 arbitration_id[61]
*61 arbitration_id[62]
*62 arbitration_id[63]
*63 arbitration_id[6]
*64 arbitration_id[7]
*65 arbitration_id[8]
*66 arbitration_id[9]
*67 clk
*68 data_field[0]
*69 data_field[10]
*70 data_field[11]
*71 data_field[12]
*72 data_field[13]
*73 data_field[14]
*74 data_field[15]
*75 data_field[16]
*76 data_field[17]
*77 data_field[18]
*78 data_field[19]
*79 data_field[1]
*80 data_field[20]
*81 data_field[21]
*82 data_field[22]
*83 data_field[23]
*84 data_field[24]
*85 data_field[25]
*86 data_field[26]
*87 data_field[27]
*88 data_field[28]
*89 data_field[29]
*90 data_field[2]
*91 data_field[30]
*92 data_field[31]
*93 data_field[32]
*94 data_field[33]
*95 data_field[34]
*96 data_field[35]
*97 data_field[36]
*98 data_field[37]
*99 data_field[38]
*100 data_field[39]
*101 data_field[3]
*102 data_field[40]
*103 data_field[41]
*104 data_field[42]
*105 data_field[43]
*106 data_field[44]
*107 data_field[45]
*108 data_field[46]
*109 data_field[47]
*110 data_field[48]
*111 data_field[49]
*112 data_field[4]
*113 data_field[50]
*114 data_field[51]
*115 data_field[52]
*116 data_field[53]
*117 data_field[54]
*118 data_field[55]
*119 data_field[56]
*120 data_field[57]
*121 data_field[58]
*122 data_field[59]
*123 data_field[5]
*124 data_field[60]
*125 data_field[61]
*126 data_field[62]
*127 data_field[63]
*128 data_field[6]
*129 data_field[7]
*130 data_field[8]
*131 data_field[9]
*132 feature_valid
*133 frame_id_out[0]
*134 frame_id_out[1]
*135 frame_id_out[2]
*136 frame_id_out[3]
*137 frame_id_out[4]
*138 prediction_out
*139 prediction_valid
*140 ready_for_next
*141 rst_n
*142 timestamp[0]
*143 timestamp[10]
*144 timestamp[11]
*145 timestamp[12]
*146 timestamp[13]
*147 timestamp[14]
*148 timestamp[15]
*149 timestamp[16]
*150 timestamp[17]
*151 timestamp[18]
*152 timestamp[19]
*153 timestamp[1]
*154 timestamp[20]
*155 timestamp[21]
*156 timestamp[22]
*157 timestamp[23]
*158 timestamp[24]
*159 timestamp[25]
*160 timestamp[26]
*161 timestamp[27]
*162 timestamp[28]
*163 timestamp[29]
*164 timestamp[2]
*165 timestamp[30]
*166 timestamp[31]
*167 timestamp[32]
*168 timestamp[33]
*169 timestamp[34]
*170 timestamp[35]
*171 timestamp[36]
*172 timestamp[37]
*173 timestamp[38]
*174 timestamp[39]
*175 timestamp[3]
*176 timestamp[40]
*177 timestamp[41]
*178 timestamp[42]
*179 timestamp[43]
*180 timestamp[44]
*181 timestamp[45]
*182 timestamp[46]
*183 timestamp[47]
*184 timestamp[48]
*185 timestamp[49]
*186 timestamp[4]
*187 timestamp[50]
*188 timestamp[51]
*189 timestamp[52]
*190 timestamp[53]
*191 timestamp[54]
*192 timestamp[55]
*193 timestamp[56]
*194 timestamp[57]
*195 timestamp[58]
*196 timestamp[59]
*197 timestamp[5]
*198 timestamp[60]
*199 timestamp[61]
*200 timestamp[62]
*201 timestamp[63]
*202 timestamp[6]
*203 timestamp[7]
*204 timestamp[8]
*205 timestamp[9]
*206 _0000_
*207 _0001_
*208 _0002_
*209 _0003_
*210 _0004_
*211 _0005_
*212 _0006_
*213 _0007_
*214 _0008_
*215 _0009_
*216 _0010_
*217 _0011_
*218 _0012_
*219 _0013_
*220 _0014_
*221 _0015_
*222 _0016_
*223 _0017_
*224 _0018_
*225 _0019_
*226 _0020_
*227 _0021_
*228 _0022_
*229 _0023_
*230 _0024_
*231 _0025_
*232 _0026_
*233 _0027_
*234 _0028_
*235 _0029_
*236 _0030_
*237 _0031_
*238 _0032_
*239 _0033_
*240 _0034_
*241 _0035_
*242 _0036_
*243 _0037_
*244 _0038_
*245 _0039_
*246 _0040_
*247 _0041_
*248 _0042_
*249 _0043_
*250 _0044_
*251 _0045_
*252 _0046_
*253 _0047_
*254 _0048_
*255 _0049_
*256 _0050_
*257 _0051_
*258 _0052_
*259 _0053_
*260 _0054_
*261 _0055_
*262 _0056_
*263 _0057_
*264 _0058_
*265 _0059_
*266 _0060_
*267 _0061_
*268 _0062_
*269 _0063_
*270 _0064_
*271 _0065_
*272 _0066_
*273 _0067_
*274 _0068_
*275 _0069_
*276 _0070_
*277 _0071_
*278 _0072_
*279 _0073_
*280 _0074_
*281 _0075_
*282 _0076_
*283 _0077_
*284 _0078_
*285 _0079_
*286 _0080_
*287 _0081_
*288 _0082_
*289 _0083_
*290 _0084_
*291 _0085_
*292 _0086_
*293 _0087_
*294 _0088_
*295 _0089_
*296 _0090_
*297 _0091_
*298 _0092_
*299 _0093_
*300 _0094_
*301 _0095_
*302 _0096_
*303 _0097_
*304 _0098_
*305 _0099_
*306 _0100_
*307 _0101_
*308 _0102_
*309 _0103_
*310 _0104_
*311 _0105_
*312 _0106_
*313 _0107_
*314 _0108_
*315 _0109_
*316 _0110_
*317 _0111_
*318 _0112_
*319 _0113_
*320 _0114_
*321 _0115_
*322 _0116_
*323 _0117_
*324 _0118_
*325 _0119_
*326 _0120_
*327 _0121_
*328 _0122_
*329 _0123_
*330 _0124_
*331 _0125_
*332 _0126_
*333 _0127_
*334 _0128_
*335 _0129_
*336 _0130_
*337 _0131_
*338 _0132_
*339 _0133_
*340 _0134_
*341 _0135_
*342 _0136_
*343 _0137_
*344 _0138_
*345 _0139_
*346 _0140_
*347 _0141_
*348 _0142_
*349 _0143_
*350 _0144_
*351 _0145_
*352 _0146_
*353 _0147_
*354 _0148_
*355 _0149_
*356 _0150_
*357 _0151_
*358 _0152_
*359 _0153_
*360 _0154_
*361 _0155_
*362 _0156_
*363 _0157_
*364 _0158_
*365 _0159_
*366 _0160_
*367 _0161_
*368 _0162_
*369 _0163_
*370 _0164_
*371 _0165_
*372 _0166_
*373 _0167_
*374 _0168_
*375 _0169_
*376 _0170_
*377 _0171_
*378 _0172_
*379 _0173_
*380 _0174_
*381 _0175_
*382 _0176_
*383 _0177_
*384 _0178_
*385 _0179_
*386 _0180_
*387 _0181_
*388 _0182_
*389 _0183_
*390 _0184_
*391 _0185_
*392 _0186_
*393 _0187_
*394 _0188_
*395 _0189_
*396 _0190_
*397 _0191_
*398 _0192_
*399 _0193_
*400 _0194_
*401 _0195_
*402 _0196_
*403 _0197_
*404 _0198_
*405 _0199_
*406 _0200_
*407 _0201_
*408 _0202_
*409 _0203_
*410 _0204_
*411 _0205_
*412 _0206_
*413 _0207_
*414 _0208_
*415 _0209_
*416 _0210_
*417 _0211_
*418 _0212_
*419 _0213_
*420 _0214_
*421 _0215_
*422 _0216_
*423 _0217_
*424 _0218_
*425 _0219_
*426 _0220_
*427 _0221_
*428 _0222_
*429 _0223_
*430 _0224_
*431 _0225_
*432 _0226_
*433 _0227_
*434 _0228_
*435 _0229_
*436 _0230_
*437 _0231_
*438 _0232_
*439 _0233_
*440 _0234_
*441 _0235_
*442 _0236_
*443 _0237_
*444 _0238_
*445 _0239_
*446 _0240_
*447 _0241_
*448 _0242_
*449 _0243_
*450 _0244_
*451 _0245_
*452 _0246_
*453 _0247_
*454 _0248_
*455 _0249_
*456 _0250_
*457 _0251_
*458 _0252_
*459 _0253_
*460 _0254_
*461 _0255_
*462 _0256_
*463 _0257_
*464 _0258_
*465 _0259_
*466 _0260_
*467 _0261_
*468 _0262_
*469 _0263_
*470 _0264_
*471 _0265_
*472 _0266_
*473 _0267_
*474 _0268_
*475 _0269_
*476 _0270_
*477 _0271_
*478 _0272_
*479 _0273_
*480 _0274_
*481 _0275_
*482 _0276_
*483 _0277_
*484 _0278_
*485 _0279_
*486 _0280_
*487 _0281_
*488 _0282_
*489 _0283_
*490 _0284_
*491 _0285_
*492 _0286_
*493 _0287_
*494 _0288_
*495 _0289_
*496 _0290_
*497 _0291_
*498 _0292_
*499 _0293_
*500 _0294_
*501 _0295_
*502 _0296_
*503 _0297_
*504 _0298_
*505 _0299_
*506 _0300_
*507 _0301_
*508 _0302_
*509 _0303_
*510 _0304_
*511 _0305_
*512 _0306_
*513 _0307_
*514 _0308_
*515 _0309_
*516 _0310_
*517 _0311_
*518 _0312_
*519 _0313_
*520 _0314_
*521 _0315_
*522 _0316_
*523 _0317_
*524 _0318_
*525 _0319_
*526 _0320_
*527 _0321_
*528 _0322_
*529 _0323_
*530 _0324_
*531 _0325_
*532 _0326_
*533 _0327_
*534 _0328_
*535 _0329_
*536 _0330_
*537 _0331_
*538 _0332_
*539 _0333_
*540 _0334_
*541 _0335_
*542 _0336_
*543 _0337_
*544 _0338_
*545 _0339_
*546 _0340_
*547 _0341_
*548 _0342_
*549 _0343_
*550 _0344_
*551 _0345_
*552 _0346_
*553 _0347_
*554 _0348_
*555 _0349_
*556 _0350_
*557 _0351_
*558 _0352_
*559 _0353_
*560 _0354_
*561 _0355_
*562 _0356_
*563 _0357_
*564 _0358_
*565 _0359_
*566 _0360_
*567 _0361_
*568 _0362_
*569 _0363_
*570 _0364_
*571 _0365_
*572 _0366_
*573 _0367_
*574 _0368_
*575 _0369_
*576 _0370_
*577 _0371_
*578 _0372_
*579 _0373_
*580 _0374_
*581 _0375_
*582 _0376_
*583 _0377_
*584 _0378_
*585 _0379_
*586 _0380_
*587 _0381_
*588 _0382_
*589 _0383_
*590 _0384_
*591 _0385_
*592 _0386_
*593 _0387_
*594 _0388_
*595 _0389_
*596 _0390_
*597 _0391_
*598 _0392_
*599 _0393_
*600 _0394_
*601 _0395_
*602 _0396_
*603 _0397_
*604 _0398_
*605 _0399_
*606 _0400_
*607 _0401_
*608 _0402_
*609 _0403_
*610 _0404_
*611 _0405_
*612 _0406_
*613 _0407_
*614 _0408_
*615 _0409_
*616 _0410_
*617 _0411_
*618 _0412_
*619 _0413_
*620 _0414_
*621 _0415_
*622 _0416_
*623 _0417_
*624 _0418_
*625 _0419_
*626 _0420_
*627 _0421_
*628 _0422_
*629 _0423_
*630 _0424_
*631 _0425_
*632 _0426_
*633 _0427_
*634 _0428_
*635 _0429_
*636 _0430_
*637 _0431_
*638 _0432_
*639 _0433_
*640 _0434_
*641 _0435_
*642 _0436_
*643 _0437_
*644 _0438_
*645 _0439_
*646 _0440_
*647 _0441_
*648 _0442_
*649 _0443_
*650 _0444_
*651 _0445_
*652 _0446_
*653 _0447_
*654 _0448_
*655 _0449_
*656 _0450_
*657 _0451_
*658 _0452_
*659 _0453_
*660 _0454_
*661 _0455_
*662 _0456_
*663 _0457_
*664 _0458_
*665 _0459_
*666 _0460_
*667 _0461_
*668 _0462_
*669 _0463_
*670 _0464_
*671 _0465_
*672 _0466_
*673 _0467_
*674 _0468_
*675 _0469_
*676 _0470_
*677 _0471_
*678 _0472_
*679 _0473_
*680 _0474_
*681 _0475_
*682 _0476_
*683 _0477_
*684 _0478_
*685 _0479_
*686 _0480_
*687 _0481_
*688 _0482_
*689 _0483_
*690 _0484_
*691 _0485_
*692 _0486_
*693 _0487_
*694 _0488_
*695 _0489_
*696 _0490_
*697 _0491_
*698 _0492_
*699 _0493_
*700 _0494_
*701 _0495_
*702 _0496_
*703 _0497_
*704 _0498_
*705 _0499_
*706 _0500_
*707 _0501_
*708 _0502_
*709 _0503_
*710 _0504_
*711 _0505_
*712 _0506_
*713 _0507_
*714 _0508_
*715 _0509_
*716 _0510_
*717 _0511_
*718 _0512_
*719 _0513_
*720 _0514_
*721 _0515_
*722 _0516_
*723 _0517_
*724 _0518_
*725 _0519_
*726 _0520_
*727 _0521_
*728 _0522_
*729 _0523_
*730 _0524_
*731 _0525_
*732 _0526_
*733 _0527_
*734 _0528_
*735 _0529_
*736 _0530_
*737 _0531_
*738 _0532_
*739 _0533_
*740 _0534_
*741 _0535_
*742 _0536_
*743 _0537_
*744 _0538_
*745 _0539_
*746 _0540_
*747 _0541_
*748 _0542_
*749 _0543_
*750 _0544_
*751 _0545_
*752 _0546_
*753 _0547_
*754 _0548_
*755 _0549_
*756 _0550_
*757 _0551_
*758 _0552_
*759 _0553_
*760 _0554_
*761 _0555_
*762 _0556_
*763 _0557_
*764 _0558_
*765 _0559_
*766 _0560_
*767 _0561_
*768 _0562_
*769 _0563_
*770 _0564_
*771 _0565_
*772 _0566_
*773 _0567_
*774 _0568_
*775 _0569_
*776 _0570_
*777 _0571_
*778 _0572_
*779 _0573_
*780 _0574_
*781 _0575_
*782 _0576_
*783 _0577_
*784 _0578_
*785 _0579_
*786 _0580_
*787 _0581_
*788 _0582_
*789 _0583_
*790 _0584_
*791 _0585_
*792 _0586_
*793 _0587_
*794 _0588_
*795 _0589_
*796 _0590_
*797 _0591_
*798 _0592_
*799 _0593_
*800 _0594_
*801 _0595_
*802 _0596_
*803 _0597_
*804 _0598_
*805 _0599_
*806 _0600_
*807 _0601_
*808 _0602_
*809 _0603_
*810 _0604_
*811 _0605_
*812 _0606_
*813 _0607_
*814 _0608_
*815 _0609_
*816 _0610_
*817 _0611_
*818 _0612_
*819 _0613_
*820 _0614_
*821 _0615_
*822 _0616_
*823 _0617_
*824 _0618_
*825 _0619_
*826 _0620_
*827 _0621_
*828 _0622_
*829 _0623_
*830 _0624_
*831 _0625_
*832 _0626_
*833 _0627_
*834 _0628_
*835 _0629_
*836 _0630_
*837 _0631_
*838 _0632_
*839 _0633_
*840 _0634_
*841 _0635_
*842 _0636_
*843 _0637_
*844 _0638_
*845 _0639_
*846 _0640_
*847 _0641_
*848 _0642_
*849 _0643_
*850 _0644_
*851 _0645_
*852 _0646_
*853 _0647_
*854 _0648_
*855 _0649_
*856 _0650_
*857 _0651_
*858 _0652_
*859 _0653_
*860 _0654_
*861 _0655_
*862 _0656_
*863 _0657_
*864 _0658_
*865 _0659_
*866 _0660_
*867 _0661_
*868 _0662_
*869 _0663_
*870 _0664_
*871 _0665_
*872 _0666_
*873 _0667_
*874 _0668_
*875 _0669_
*876 _0670_
*877 _0671_
*878 _0672_
*879 _0673_
*880 _0674_
*881 _0675_
*882 _0676_
*883 _0677_
*884 _0678_
*885 _0679_
*886 _0680_
*887 _0681_
*888 _0682_
*889 _0683_
*890 _0684_
*891 _0685_
*892 _0686_
*893 _0687_
*894 _0688_
*895 _0689_
*896 _0690_
*897 _0691_
*898 _0692_
*899 _0693_
*900 _0694_
*901 _0695_
*902 _0696_
*903 _0697_
*904 _0698_
*905 _0699_
*906 _0700_
*907 _0701_
*908 _0702_
*909 _0703_
*910 _0704_
*911 _0705_
*912 _0706_
*913 _0707_
*914 _0708_
*915 _0709_
*916 _0710_
*917 _0711_
*918 _0712_
*919 _0713_
*920 _0714_
*921 _0715_
*922 _0716_
*923 _0717_
*924 _0718_
*925 _0719_
*926 _0720_
*927 _0721_
*928 _0722_
*929 _0723_
*930 _0724_
*931 _0725_
*932 _0726_
*933 _0727_
*934 _0728_
*935 _0729_
*936 _0730_
*937 _0731_
*938 _0732_
*939 _0733_
*940 _0734_
*941 _0735_
*942 _0736_
*943 _0737_
*944 _0738_
*945 _0739_
*946 _0740_
*947 _0741_
*948 _0742_
*949 _0743_
*950 _0744_
*951 _0745_
*952 _0746_
*953 _0747_
*954 _0748_
*955 _0749_
*956 _0750_
*957 _0751_
*958 _0752_
*959 _0753_
*960 _0754_
*961 _0755_
*962 _0756_
*963 _0757_
*964 _0758_
*965 _0759_
*966 _0760_
*967 _0761_
*968 _0762_
*969 _0763_
*970 _0764_
*971 _0765_
*972 _0766_
*973 _0767_
*974 _0768_
*975 _0769_
*976 _0770_
*977 _0771_
*978 _0772_
*979 _0773_
*980 _0774_
*981 _0775_
*982 _0776_
*983 _0777_
*984 _0778_
*985 _0779_
*986 _0780_
*987 _0781_
*988 _0782_
*989 _0783_
*990 _0784_
*991 _0785_
*992 _0786_
*993 _0787_
*994 _0788_
*995 _0789_
*996 _0790_
*997 _0791_
*998 _0792_
*999 _0793_
*1000 _0794_
*1001 _0795_
*1002 _0796_
*1003 _0797_
*1004 _0798_
*1005 _0799_
*1006 _0800_
*1007 _0801_
*1008 _0802_
*1009 _0803_
*1010 _0804_
*1011 _0805_
*1012 _0806_
*1013 _0807_
*1014 _0808_
*1015 _0809_
*1016 _0810_
*1017 _0811_
*1018 _0812_
*1019 _0813_
*1020 _0814_
*1021 _0815_
*1022 _0816_
*1023 _0817_
*1024 _0818_
*1025 _0819_
*1026 _0820_
*1027 _0821_
*1028 _0822_
*1029 _0823_
*1030 _0824_
*1031 _0825_
*1032 _0826_
*1033 _0827_
*1034 _0828_
*1035 _0829_
*1036 _0830_
*1037 _0831_
*1038 _0832_
*1039 _0833_
*1040 _0834_
*1041 _0835_
*1042 _0836_
*1043 _0837_
*1044 _0838_
*1045 _0839_
*1046 _0840_
*1047 _0841_
*1048 _0842_
*1049 _0843_
*1050 _0844_
*1051 _0845_
*1052 _0846_
*1053 _0847_
*1054 _0848_
*1055 _0849_
*1056 _0850_
*1057 _0851_
*1058 _0852_
*1059 _0853_
*1060 _0854_
*1061 _0855_
*1062 _0856_
*1063 _0857_
*1064 _0858_
*1065 _0859_
*1066 _0860_
*1067 _0861_
*1068 _0862_
*1069 _0863_
*1070 _0864_
*1071 _0865_
*1072 _0866_
*1073 _0867_
*1074 _0868_
*1075 _0869_
*1076 _0870_
*1077 _0871_
*1078 _0872_
*1079 _0873_
*1080 _0874_
*1081 _0875_
*1082 _0876_
*1083 _0877_
*1084 _0878_
*1085 _0879_
*1086 _0880_
*1087 _0881_
*1088 _0882_
*1089 _0883_
*1090 _0884_
*1091 _0885_
*1092 _0886_
*1093 _0887_
*1094 _0888_
*1095 _0889_
*1096 _0890_
*1097 _0891_
*1098 _0892_
*1099 _0893_
*1100 _0894_
*1101 _0895_
*1102 _0896_
*1103 _0897_
*1104 _0898_
*1105 _0899_
*1106 _0900_
*1107 _0901_
*1108 _0902_
*1109 _0903_
*1110 _0904_
*1111 _0905_
*1112 _0906_
*1113 _0907_
*1114 _0908_
*1115 _0909_
*1116 _0910_
*1117 _0911_
*1118 _0912_
*1119 _0913_
*1120 _0914_
*1121 _0915_
*1122 _0916_
*1123 _0917_
*1124 _0918_
*1125 _0919_
*1126 _0920_
*1127 _0921_
*1128 _0922_
*1129 _0923_
*1130 _0924_
*1131 _0925_
*1132 _0926_
*1133 _0927_
*1134 _0928_
*1135 _0929_
*1136 _0930_
*1137 _0931_
*1138 _0932_
*1139 _0933_
*1140 _0934_
*1141 _0935_
*1142 _0936_
*1143 _0937_
*1144 _0938_
*1145 _0939_
*1146 _0940_
*1147 _0941_
*1148 _0942_
*1149 _0943_
*1150 _0944_
*1151 _0945_
*1152 _0946_
*1153 _0947_
*1154 _0948_
*1155 _0949_
*1156 _0950_
*1157 _0951_
*1158 _0952_
*1159 _0953_
*1160 _0954_
*1161 _0955_
*1162 _0956_
*1163 _0957_
*1164 _0958_
*1165 _0959_
*1166 _0960_
*1167 _0961_
*1168 _0962_
*1169 _0963_
*1170 _0964_
*1171 _0965_
*1172 _0966_
*1173 _0967_
*1174 _0968_
*1175 _0969_
*1176 _0970_
*1177 _0971_
*1178 _0972_
*1179 _0973_
*1180 _0974_
*1181 _0975_
*1182 _0976_
*1183 _0977_
*1184 _0978_
*1185 _0979_
*1186 _0980_
*1187 _0981_
*1188 _0982_
*1189 _0983_
*1190 _0984_
*1191 _0985_
*1192 _0986_
*1193 _0987_
*1194 _0988_
*1195 _0989_
*1196 _0990_
*1197 _0991_
*1198 _0992_
*1199 _0993_
*1200 _0994_
*1201 _0995_
*1202 _0996_
*1203 _0997_
*1204 _0998_
*1205 _0999_
*1206 _1000_
*1207 _1001_
*1208 _1002_
*1209 _1003_
*1210 _1004_
*1211 _1005_
*1212 _1006_
*1213 _1007_
*1214 _1008_
*1215 _1009_
*1216 _1010_
*1217 _1011_
*1218 _1012_
*1219 _1013_
*1220 _1014_
*1221 _1015_
*1222 _1016_
*1223 _1017_
*1224 _1018_
*1225 _1019_
*1226 _1020_
*1227 _1021_
*1228 _1022_
*1229 _1023_
*1230 _1024_
*1231 _1025_
*1232 _1026_
*1233 _1027_
*1234 _1028_
*1235 _1029_
*1236 _1030_
*1237 _1031_
*1238 _1032_
*1239 _1033_
*1240 _1034_
*1241 _1035_
*1242 _1036_
*1243 _1037_
*1244 _1038_
*1245 _1039_
*1246 _1040_
*1247 _1041_
*1248 _1042_
*1249 _1043_
*1250 _1044_
*1251 _1045_
*1252 _1046_
*1253 _1047_
*1254 _1048_
*1255 _1049_
*1256 _1050_
*1257 _1051_
*1258 _1052_
*1259 _1053_
*1260 _1054_
*1261 _1055_
*1262 _1056_
*1263 _1057_
*1264 _1058_
*1265 _1059_
*1266 _1060_
*1267 _1061_
*1268 _1062_
*1269 _1063_
*1270 _1064_
*1271 _1065_
*1272 _1066_
*1273 _1067_
*1274 _1068_
*1275 _1069_
*1276 _1070_
*1277 _1071_
*1278 _1072_
*1279 _1073_
*1280 _1074_
*1281 _1075_
*1282 _1076_
*1283 _1077_
*1284 _1078_
*1285 _1079_
*1286 _1080_
*1287 _1081_
*1288 _1082_
*1289 _1083_
*1290 _1084_
*1291 _1085_
*1292 _1086_
*1293 _1087_
*1294 _1088_
*1295 _1089_
*1296 _1090_
*1297 _1091_
*1298 _1092_
*1299 _1093_
*1300 _1094_
*1301 _1095_
*1302 _1096_
*1303 _1097_
*1304 _1098_
*1305 _1099_
*1306 _1100_
*1307 _1101_
*1308 _1102_
*1309 _1103_
*1310 _1104_
*1311 _1105_
*1312 _1106_
*1313 _1107_
*1314 _1108_
*1315 _1109_
*1316 _1110_
*1317 _1111_
*1318 _1112_
*1319 _1113_
*1320 _1114_
*1321 _1115_
*1322 _1116_
*1323 _1117_
*1324 _1118_
*1325 _1119_
*1326 _1120_
*1327 _1121_
*1328 _1122_
*1329 _1123_
*1330 _1124_
*1331 _1125_
*1332 _1126_
*1333 _1127_
*1334 _1128_
*1335 _1129_
*1336 _1130_
*1337 _1131_
*1338 _1132_
*1339 _1133_
*1340 _1134_
*1341 _1135_
*1342 _1136_
*1343 _1137_
*1344 _1138_
*1345 _1139_
*1346 _1140_
*1347 _1141_
*1348 _1142_
*1349 _1143_
*1350 _1144_
*1351 _1145_
*1352 _1146_
*1353 _1147_
*1354 _1148_
*1355 _1149_
*1356 _1150_
*1357 _1151_
*1358 _1152_
*1359 _1153_
*1360 _1154_
*1361 _1155_
*1362 _1156_
*1363 _1157_
*1364 _1158_
*1365 _1159_
*1366 _1160_
*1367 _1161_
*1368 _1162_
*1369 _1163_
*1370 _1164_
*1371 _1165_
*1372 _1166_
*1373 _1167_
*1374 _1168_
*1375 _1169_
*1376 _1170_
*1377 _1171_
*1378 _1172_
*1379 _1173_
*1380 _1174_
*1381 _1175_
*1382 _1176_
*1383 _1177_
*1384 _1178_
*1385 _1179_
*1386 _1180_
*1387 _1181_
*1388 _1182_
*1389 _1183_
*1390 _1184_
*1391 _1185_
*1392 _1186_
*1393 _1187_
*1394 _1188_
*1395 _1189_
*1396 _1190_
*1397 _1191_
*1398 _1192_
*1399 _1193_
*1400 _1194_
*1401 _1195_
*1402 _1196_
*1403 _1197_
*1404 _1198_
*1405 _1199_
*1406 _1200_
*1407 _1201_
*1408 _1202_
*1409 _1203_
*1410 _1204_
*1411 _1205_
*1412 _1206_
*1413 _1207_
*1414 _1208_
*1415 _1209_
*1416 _1210_
*1417 _1211_
*1418 _1212_
*1419 _1213_
*1420 _1214_
*1421 _1215_
*1422 _1216_
*1423 _1217_
*1424 _1218_
*1425 _1219_
*1426 _1220_
*1427 _1221_
*1428 _1222_
*1429 _1223_
*1430 _1224_
*1431 _1225_
*1432 _1226_
*1433 _1227_
*1434 _1228_
*1435 _1229_
*1436 _1230_
*1437 _1231_
*1438 _1232_
*1439 _1233_
*1440 _1234_
*1441 _1235_
*1442 _1236_
*1443 _1237_
*1444 _1238_
*1445 _1239_
*1446 _1240_
*1447 _1241_
*1448 _1242_
*1449 _1243_
*1450 _1244_
*1451 _1245_
*1452 _1246_
*1453 _1247_
*1454 _1248_
*1455 _1249_
*1456 _1250_
*1457 _1251_
*1458 _1252_
*1459 _1253_
*1460 _1254_
*1461 _1255_
*1462 _1256_
*1463 _1257_
*1464 _1258_
*1465 _1259_
*1466 _1260_
*1467 _1261_
*1468 _1262_
*1469 _1263_
*1470 _1264_
*1471 _1265_
*1472 _1266_
*1473 _1267_
*1474 _1268_
*1475 _1269_
*1476 _1270_
*1477 _1271_
*1478 _1272_
*1479 _1273_
*1480 _1274_
*1481 _1275_
*1482 _1276_
*1483 _1277_
*1484 _1278_
*1485 _1279_
*1486 _1280_
*1487 _1281_
*1488 _1282_
*1489 _1283_
*1490 _1284_
*1491 _1285_
*1492 _1286_
*1493 _1287_
*1494 _1288_
*1495 _1289_
*1496 _1290_
*1497 _1291_
*1498 _1292_
*1499 _1293_
*1500 _1294_
*1501 _1295_
*1502 _1296_
*1503 _1297_
*1504 _1298_
*1505 _1299_
*1506 _1300_
*1507 _1301_
*1508 _1302_
*1509 _1303_
*1510 _1304_
*1511 _1305_
*1512 _1306_
*1513 _1307_
*1514 _1308_
*1515 _1309_
*1516 _1310_
*1517 _1311_
*1518 _1312_
*1519 _1313_
*1520 _1314_
*1521 _1315_
*1522 _1316_
*1523 _1317_
*1524 _1318_
*1525 _1319_
*1526 _1320_
*1527 _1321_
*1528 _1322_
*1529 _1323_
*1530 _1324_
*1531 _1325_
*1532 _1326_
*1533 _1327_
*1534 _1328_
*1535 _1329_
*1536 _1330_
*1537 _1331_
*1538 _1332_
*1539 _1333_
*1540 _1334_
*1541 _1335_
*1542 _1336_
*1543 _1337_
*1544 _1338_
*1545 _1339_
*1546 _1340_
*1547 _1341_
*1548 _1342_
*1549 _1343_
*1550 _1344_
*1551 _1345_
*1552 _1346_
*1553 _1347_
*1554 _1348_
*1555 _1349_
*1556 _1350_
*1557 _1351_
*1558 _1352_
*1559 _1353_
*1560 _1354_
*1561 _1355_
*1562 _1356_
*1563 _1357_
*1564 _1358_
*1565 _1359_
*1566 _1360_
*1567 _1361_
*1568 _1362_
*1569 _1363_
*1570 _1364_
*1571 _1365_
*1572 _1366_
*1573 _1367_
*1574 _1368_
*1575 _1369_
*1576 _1370_
*1577 _1371_
*1578 _1372_
*1579 _1373_
*1580 _1374_
*1581 _1375_
*1582 _1376_
*1583 _1377_
*1584 _1378_
*1585 _1379_
*1586 _1380_
*1587 _1381_
*1588 _1382_
*1589 _1383_
*1590 _1384_
*1591 _1385_
*1592 _1386_
*1593 _1387_
*1594 _1388_
*1595 _1389_
*1596 _1390_
*1597 _1391_
*1598 _1392_
*1599 _1393_
*1600 _1394_
*1601 _1395_
*1602 _1396_
*1603 _1397_
*1604 _1398_
*1605 _1399_
*1606 _1400_
*1607 _1401_
*1608 _1402_
*1609 _1403_
*1610 _1404_
*1611 _1405_
*1612 _1406_
*1613 _1407_
*1614 _1408_
*1615 _1409_
*1616 _1410_
*1617 _1411_
*1618 _1412_
*1619 _1413_
*1620 _1414_
*1621 _1415_
*1622 _1416_
*1623 _1417_
*1624 _1418_
*1625 _1419_
*1626 _1420_
*1627 _1421_
*1628 _1422_
*1629 _1423_
*1630 _1424_
*1631 _1425_
*1632 _1426_
*1633 _1427_
*1634 _1428_
*1635 _1429_
*1636 _1430_
*1637 _1431_
*1638 _1432_
*1639 _1433_
*1640 _1434_
*1641 _1435_
*1642 _1436_
*1643 _1437_
*1644 _1438_
*1645 _1439_
*1646 _1440_
*1647 _1441_
*1648 _1442_
*1649 _1443_
*1650 _1444_
*1651 _1445_
*1652 _1446_
*1653 _1447_
*1654 _1448_
*1655 _1449_
*1656 _1450_
*1657 _1451_
*1658 _1452_
*1659 _1453_
*1660 _1454_
*1661 _1455_
*1662 _1456_
*1663 _1457_
*1664 _1458_
*1665 _1459_
*1666 _1460_
*1667 _1461_
*1668 _1462_
*1669 _1463_
*1670 _1464_
*1671 _1465_
*1672 _1466_
*1673 _1467_
*1674 _1468_
*1675 _1469_
*1676 _1470_
*1677 _1471_
*1678 _1472_
*1679 _1473_
*1680 _1474_
*1681 _1475_
*1682 _1476_
*1683 _1477_
*1684 _1478_
*1685 _1479_
*1686 _1480_
*1687 _1481_
*1688 _1482_
*1689 _1483_
*1690 _1484_
*1691 _1485_
*1692 _1486_
*1693 _1487_
*1694 _1488_
*1695 _1489_
*1696 _1490_
*1697 _1491_
*1698 _1492_
*1699 _1493_
*1700 _1494_
*1701 _1495_
*1702 _1496_
*1703 _1497_
*1704 _1498_
*1705 _1499_
*1706 _1500_
*1707 _1501_
*1708 _1502_
*1709 _1503_
*1710 _1504_
*1711 _1505_
*1712 _1506_
*1713 _1507_
*1714 _1508_
*1715 _1509_
*1716 _1510_
*1717 _1511_
*1718 _1512_
*1719 _1513_
*1720 _1514_
*1721 _1515_
*1722 _1516_
*1723 _1517_
*1724 _1518_
*1725 _1519_
*1726 _1520_
*1727 _1521_
*1728 _1522_
*1729 _1523_
*1730 _1524_
*1731 _1525_
*1732 _1526_
*1733 _1527_
*1734 _1528_
*1735 _1529_
*1736 _1530_
*1737 _1531_
*1738 _1532_
*1739 _1533_
*1740 _1534_
*1741 _1535_
*1742 _1536_
*1743 _1537_
*1744 _1538_
*1745 _1539_
*1746 _1540_
*1747 _1541_
*1748 _1542_
*1749 _1543_
*1750 _1544_
*1751 _1545_
*1752 _1546_
*1753 _1547_
*1754 _1548_
*1755 _1549_
*1756 _1550_
*1757 _1551_
*1758 _1552_
*1759 _1553_
*1760 _1554_
*1761 _1555_
*1762 _1556_
*1763 _1557_
*1764 _1558_
*1765 _1559_
*1766 _1560_
*1767 _1561_
*1768 _1562_
*1769 _1563_
*1770 _1564_
*1771 _1565_
*1772 _1566_
*1773 _1567_
*1774 _1568_
*1775 _1569_
*1776 _1570_
*1777 _1571_
*1778 _1572_
*1779 _1573_
*1780 _1574_
*1781 _1575_
*1782 _1576_
*1783 _1577_
*1784 _1578_
*1785 _1579_
*1786 _1580_
*1787 _1581_
*1788 _1582_
*1789 _1583_
*1790 _1584_
*1791 _1585_
*1792 _1586_
*1793 _1587_
*1794 _1588_
*1795 _1589_
*1796 _1590_
*1797 _1591_
*1798 _1592_
*1799 _1593_
*1800 _1594_
*1801 _1595_
*1802 _1596_
*1803 _1597_
*1804 _1598_
*1805 _1599_
*1806 _1600_
*1807 _1601_
*1808 _1602_
*1809 _1603_
*1810 _1604_
*1811 _1605_
*1812 _1606_
*1813 _1607_
*1814 _1608_
*1815 _1609_
*1816 _1610_
*1817 _1611_
*1818 _1612_
*1819 _1613_
*1820 _1614_
*1821 _1615_
*1822 _1616_
*1823 _1617_
*1824 _1618_
*1825 _1619_
*1826 _1620_
*1827 _1621_
*1828 _1622_
*1829 _1623_
*1830 _1624_
*1831 _1625_
*1832 _1626_
*1833 _1627_
*1834 _1628_
*1835 _1629_
*1836 _1630_
*1837 _1631_
*1838 _1632_
*1839 _1633_
*1840 _1634_
*1841 _1635_
*1842 _1636_
*1843 _1637_
*1844 _1638_
*1845 _1639_
*1846 _1640_
*1847 _1641_
*1848 _1642_
*1849 _1643_
*1850 _1644_
*1851 _1645_
*1852 _1646_
*1853 _1647_
*1854 _1648_
*1855 _1649_
*1856 _1650_
*1857 _1651_
*1858 _1652_
*1859 _1653_
*1860 _1654_
*1861 _1655_
*1862 _1656_
*1863 _1657_
*1864 _1658_
*1865 _1659_
*1866 _1660_
*1867 _1661_
*1868 _1662_
*1869 _1663_
*1870 _1664_
*1871 _1665_
*1872 _1666_
*1873 _1667_
*1874 _1668_
*1875 _1669_
*1876 _1670_
*1877 _1671_
*1878 _1672_
*1879 _1673_
*1880 _1674_
*1881 _1675_
*1882 _1676_
*1883 _1677_
*1884 _1678_
*1885 _1679_
*1886 _1680_
*1887 _1681_
*1888 _1682_
*1889 _1683_
*1890 _1684_
*1891 _1685_
*1892 _1686_
*1893 _1687_
*1894 _1688_
*1895 _1689_
*1896 _1690_
*1897 _1691_
*1898 _1692_
*1899 _1693_
*1900 _1694_
*1901 _1695_
*1902 _1696_
*1903 _1697_
*1904 _1698_
*1905 _1699_
*1906 _1700_
*1907 _1701_
*1908 _1702_
*1909 _1703_
*1910 _1704_
*1911 _1705_
*1912 _1706_
*1913 _1707_
*1914 _1708_
*1915 _1709_
*1916 _1710_
*1917 _1711_
*1918 _1712_
*1919 _1713_
*1920 _1714_
*1921 _1715_
*1922 _1716_
*1923 _1717_
*1924 _1718_
*1925 _1719_
*1926 _1720_
*1927 _1721_
*1928 _1722_
*1929 _1723_
*1930 _1724_
*1931 _1725_
*1932 _1726_
*1933 _1727_
*1934 _1728_
*1935 _1729_
*1936 _1730_
*1937 _1731_
*1938 _1732_
*1939 _1733_
*1940 _1734_
*1941 _1735_
*1942 _1736_
*1943 _1737_
*1944 _1738_
*1945 _1739_
*1946 _1740_
*1947 _1741_
*1948 _1742_
*1949 _1743_
*1950 _1744_
*1951 _1745_
*1952 _1746_
*1953 _1747_
*1954 _1748_
*1955 _1749_
*1956 _1750_
*1957 _1751_
*1958 _1752_
*1959 _1753_
*1960 _1754_
*1961 _1755_
*1962 _1756_
*1963 _1757_
*1964 _1758_
*1965 _1759_
*1966 _1760_
*1967 _1761_
*1968 _1762_
*1969 _1763_
*1970 _1764_
*1971 _1765_
*1972 _1766_
*1973 _1767_
*1974 _1768_
*1975 _1769_
*1976 _1770_
*1977 _1771_
*1978 _1772_
*1979 _1773_
*1980 _1774_
*1981 _1775_
*1982 _1776_
*1983 _1777_
*1984 _1778_
*1985 _1779_
*1986 _1780_
*1987 _1781_
*1988 _1782_
*1989 _1783_
*1990 _1784_
*1991 _1785_
*1992 _1786_
*1993 _1787_
*1994 _1788_
*1995 _1789_
*1996 _1790_
*1997 _1791_
*1998 _1792_
*1999 _1793_
*2000 _1794_
*2001 _1795_
*2002 _1796_
*2003 _1797_
*2004 _1798_
*2005 _1799_
*2006 _1800_
*2007 _1801_
*2008 _1802_
*2009 _1803_
*2010 _1804_
*2011 _1805_
*2012 _1806_
*2013 _1807_
*2014 _1808_
*2015 _1809_
*2016 _1810_
*2017 _1811_
*2018 _1812_
*2019 _1813_
*2020 _1814_
*2021 _1815_
*2022 _1816_
*2023 _1817_
*2024 _1818_
*2025 _1819_
*2026 _1820_
*2027 _1821_
*2028 _1822_
*2029 _1823_
*2030 _1824_
*2031 _1825_
*2032 _1826_
*2033 _1827_
*2034 _1828_
*2035 _1829_
*2036 _1830_
*2037 _1831_
*2038 _1832_
*2039 _1833_
*2040 _1834_
*2041 _1835_
*2042 _1836_
*2043 _1837_
*2044 _1838_
*2045 _1839_
*2046 _1840_
*2047 _1841_
*2048 _1842_
*2049 _1843_
*2050 _1844_
*2051 _1845_
*2052 _1846_
*2053 _1847_
*2054 _1848_
*2055 _1849_
*2056 _1850_
*2057 _1851_
*2058 _1852_
*2059 _1853_
*2060 _1854_
*2061 _1855_
*2062 _1856_
*2063 _1857_
*2064 _1858_
*2065 _1859_
*2066 _1860_
*2067 _1861_
*2068 _1862_
*2069 _1863_
*2070 _1864_
*2071 _1865_
*2072 _1866_
*2073 _1867_
*2074 _1868_
*2075 _1869_
*2076 _1870_
*2077 _1871_
*2078 _1872_
*2079 _1873_
*2080 _1874_
*2081 _1875_
*2082 _1876_
*2083 _1877_
*2084 _1878_
*2085 _1879_
*2086 _1880_
*2087 _1881_
*2088 _1882_
*2089 _1883_
*2090 _1884_
*2091 _1885_
*2092 _1886_
*2093 _1887_
*2094 _1888_
*2095 _1889_
*2096 _1890_
*2097 _1891_
*2098 _1892_
*2099 _1893_
*2100 _1894_
*2101 _1895_
*2102 _1896_
*2103 _1897_
*2104 _1898_
*2105 _1899_
*2106 _1900_
*2107 _1901_
*2108 _1902_
*2109 _1903_
*2110 _1904_
*2111 _1905_
*2112 _1906_
*2113 _1907_
*2114 _1908_
*2115 _1909_
*2116 _1910_
*2117 _1911_
*2118 _1912_
*2119 _1913_
*2120 _1914_
*2121 _1915_
*2122 _1916_
*2123 _1917_
*2124 _1918_
*2125 _1919_
*2126 _1920_
*2127 _1921_
*2128 _1922_
*2129 _1923_
*2130 _1924_
*2131 _1925_
*2132 _1926_
*2133 _1927_
*2134 _1928_
*2135 _1929_
*2136 _1930_
*2137 _1931_
*2138 _1932_
*2139 _1933_
*2140 _1934_
*2141 _1935_
*2142 _1936_
*2143 _1937_
*2144 _1938_
*2145 _1939_
*2146 _1940_
*2147 _1941_
*2148 _1942_
*2149 _1943_
*2150 _1944_
*2151 _1945_
*2152 _1946_
*2153 _1947_
*2154 _1948_
*2155 _1949_
*2156 _1950_
*2157 _1951_
*2158 _1952_
*2159 _1953_
*2160 _1954_
*2161 _1955_
*2162 _1956_
*2163 _1957_
*2164 _1958_
*2165 _1959_
*2166 _1960_
*2167 _1961_
*2168 _1962_
*2169 _1963_
*2170 _1964_
*2171 _1965_
*2172 _1966_
*2173 _1967_
*2174 _1968_
*2175 _1969_
*2176 _1970_
*2177 _1971_
*2178 _1972_
*2179 _1973_
*2180 _1974_
*2181 _1975_
*2182 _1976_
*2183 _1977_
*2184 _1978_
*2185 _1979_
*2186 _1980_
*2187 _1981_
*2188 _1982_
*2189 _1983_
*2190 _1984_
*2191 _1985_
*2192 _1986_
*2193 _1987_
*2194 _1988_
*2195 _1989_
*2196 _1990_
*2197 _1991_
*2198 _1992_
*2199 _1993_
*2200 _1994_
*2201 _1995_
*2202 _1996_
*2203 _1997_
*2204 _1998_
*2205 _1999_
*2206 _2000_
*2207 _2001_
*2208 _2002_
*2209 _2003_
*2210 _2004_
*2211 _2005_
*2212 _2006_
*2213 _2007_
*2214 _2008_
*2215 _2009_
*2216 _2010_
*2217 _2011_
*2218 _2012_
*2219 _2013_
*2220 _2014_
*2221 _2015_
*2222 _2016_
*2223 _2017_
*2224 _2018_
*2225 _2019_
*2226 _2020_
*2227 _2021_
*2228 _2022_
*2229 _2023_
*2230 _2024_